

.include osu018.lib



V_dd 1 0 1.8
Vclk CLK 0 pulse(0 1.8 1n 1n 1n 0.25u 0.5u)
Vr SOC 0 pulse (0 1.8 1n 1n 1n 0.5u 6u)
Vc comp 0 pulse (0 1.8 1n 1n 1n 2u 6u)

.tran 1n 6u
.control
run
plot V(SOC) V(EOC) V(D9)+2 V(D8)+4 V(D7)+6 V(D6)+8 V(D5)+10 V(D4)+12 V(D3)+14 V(D2)+16 V(D1)+18 V(D0)+20
.endc
.end
